
     RDKit          3D

 61 63  0  0  0  0  0  0  0  0999 V2000
   -0.5982    1.6854    3.7672 O   0  0  0  0  0  0  0  0  0  0  0  0
    1.6081   -1.3221    4.5030 H   0  0  0  0  0  0  0  0  0  0  0  0
    1.6368    2.1535    1.5434 H   0  0  0  0  0  0  0  0  0  0  0  0
   -1.4466    1.3797    0.7031 C   0  0  0  0  0  0  0  0  0  0  0  0
   -2.4729    3.2286    3.2819 H   0  0  0  0  0  0  0  0  0  0  0  0
   -1.7686   -2.3234   -4.0482 H   0  0  0  0  0  0  0  0  0  0  0  0
    2.4674    1.3918   -3.6815 H   0  0  0  0  0  0  0  0  0  0  0  0
    0.3681   -2.4396   -4.0512 C   0  0  0  0  0  0  0  0  0  0  0  0
    1.5678   -1.6067   -2.6477 H   0  0  0  0  0  0  0  0  0  0  0  0
    1.5352    0.8174   -3.6983 C   0  0  0  0  0  0  0  0  0  0  0  0
    2.3624   -0.1410   -0.6733 N   0  0  0  0  0  0  0  0  0  0  0  0
   -3.2766    4.3087    0.5433 H   0  0  0  0  0  0  0  0  0  0  0  0
    3.2157    0.2463   -0.8884 H   0  0  0  0  0  0  0  0  0  0  0  0
    0.0463   -0.6007    0.1314 C   0  0  0  0  0  0  0  0  0  0  0  0
   -1.5545   -3.0291   -1.8426 H   0  0  0  0  0  0  0  0  0  0  0  0
    1.2763   -1.4478    3.4761 C   0  0  0  0  0  0  0  0  0  0  0  0
   -0.3385    0.9049   -0.1869 C   0  0  0  0  0  0  0  0  0  0  0  0
   -1.2618   -1.9673   -1.9603 C   0  0  0  0  0  0  0  0  0  0  0  0
    0.9409   -0.0183    2.8752 C   0  0  0  0  0  0  0  0  0  0  0  0
   -1.2468   -3.2643    0.3036 H   0  0  0  0  0  0  0  0  0  0  0  0
    0.0691    3.3986    3.1228 H   0  0  0  0  0  0  0  0  0  0  0  0
    1.5764   -0.5363    0.3921 C   0  0  0  0  0  0  0  0  0  0  0  0
    0.4690   -2.9987    0.7596 H   0  0  0  0  0  0  0  0  0  0  0  0
    0.3757   -2.4723   -5.1572 H   0  0  0  0  0  0  0  0  0  0  0  0
   -0.6932    0.9082   -1.2320 H   0  0  0  0  0  0  0  0  0  0  0  0
   -0.8120    3.4065    0.9750 H   0  0  0  0  0  0  0  0  0  0  0  0
   -0.5122   -0.8737    1.0371 H   0  0  0  0  0  0  0  0  0  0  0  0
    1.1549    0.6885   -2.6715 H   0  0  0  0  0  0  0  0  0  0  0  0
   -2.3958   -0.7166   -0.9711 H   0  0  0  0  0  0  0  0  0  0  0  0
   -0.0605    2.3609    2.6526 C   0  0  0  0  0  0  0  0  0  0  0  0
   -0.4869   -0.1418    4.5510 H   0  0  0  0  0  0  0  0  0  0  0  0
   -3.1072    4.4082    1.6038 C   0  0  0  0  0  0  0  0  0  0  0  0
   -1.2783   -0.0560    2.9319 H   0  0  0  0  0  0  0  0  0  0  0  0
   -2.4143    5.2325    1.7741 H   0  0  0  0  0  0  0  0  0  0  0  0
   -2.5739    3.1051    2.2027 C   0  0  0  0  0  0  0  0  0  0  0  0
    2.1089   -0.5447   -5.5486 O   0  0  0  0  0  0  0  0  0  0  0  0
    0.1648   -4.0715   -0.9640 O   0  0  0  0  0  0  0  0  0  0  0  0
   -0.4402    0.3026    3.5567 C   0  0  0  0  0  0  0  0  0  0  0  0
   -2.4182   -1.1788   -1.7797 O   0  0  0  0  0  0  0  0  0  0  0  0
    1.0627   -3.8610   -1.2379 H   0  0  0  0  0  0  0  0  0  0  0  0
   -1.2184    2.6049    1.6024 C   0  0  0  0  0  0  0  0  0  0  0  0
    0.5353    1.5438   -0.1112 H   0  0  0  0  0  0  0  0  0  0  0  0
    2.0556   -1.9470    2.8937 H   0  0  0  0  0  0  0  0  0  0  0  0
    2.2897   -1.4404   -0.3681 C   0  0  0  0  0  0  0  0  0  0  0  0
   -3.3234    2.3264    2.0391 H   0  0  0  0  0  0  0  0  0  0  0  0
   -0.9686   -0.7739   -3.7278 H   0  0  0  0  0  0  0  0  0  0  0  0
    0.5148   -3.4677   -3.6962 H   0  0  0  0  0  0  0  0  0  0  0  0
    1.4764    1.3741    2.3642 C   0  0  0  0  0  0  0  0  0  0  0  0
   -0.2311   -3.0160   -0.0820 C   0  0  0  0  0  0  0  0  0  0  0  0
    1.7689   -0.5009   -4.3730 C   0  0  0  0  0  0  0  0  0  0  0  0
    1.9848    1.8296    3.2377 H   0  0  0  0  0  0  0  0  0  0  0  0
   -0.9496   -1.8429   -3.5173 C   0  0  0  0  0  0  0  0  0  0  0  0
    2.9912   -0.0894    1.9381 H   0  0  0  0  0  0  0  0  0  0  0  0
   -2.5233    0.8220    0.6284 O   0  0  0  0  0  0  0  0  0  0  0  0
    1.4912   -1.6137   -3.6477 N   0  0  0  0  0  0  0  0  0  0  0  0
    0.7909    1.3845   -4.2895 H   0  0  0  0  0  0  0  0  0  0  0  0
   -4.0602    4.6804    2.0715 H   0  0  0  0  0  0  0  0  0  0  0  0
   -0.2843   -1.6901   -0.8530 N   0  0  0  0  0  0  0  0  0  0  0  0
    1.9321    0.1113    1.7554 C   0  0  0  0  0  0  0  0  0  0  0  0
    2.4958   -2.5300   -0.7316 O   0  0  0  0  0  0  0  0  0  0  0  0
    0.3829   -2.0806    3.4194 H   0  0  0  0  0  0  0  0  0  0  0  0
  1 30  1  0
  1 38  1  0
  2 16  1  0
  3 48  1  0
  4 17  1  0
  4 41  1  0
  4 54  2  0
  5 35  1  0
  6 52  1  0
  7 10  1  0
  8 24  1  0
  8 47  1  0
  8 52  1  0
  8 55  1  0
  9 55  1  0
 10 28  1  0
 10 50  1  0
 10 56  1  0
 11 13  1  0
 11 22  1  0
 11 44  1  0
 12 32  1  0
 14 17  1  0
 14 22  1  0
 14 27  1  0
 14 58  1  0
 15 18  1  0
 16 19  1  0
 16 43  1  0
 16 61  1  0
 17 25  1  0
 17 42  1  0
 18 39  1  0
 18 52  1  0
 18 58  1  0
 19 38  1  0
 19 48  1  0
 19 59  1  0
 20 49  1  0
 21 30  1  0
 22 44  1  0
 22 59  1  0
 23 49  1  0
 26 41  1  0
 29 39  1  0
 30 41  1  0
 31 38  1  0
 32 34  1  0
 32 35  1  0
 32 57  1  0
 33 38  1  0
 35 41  1  0
 35 45  1  0
 36 50  2  0
 37 40  1  0
 37 49  1  0
 44 60  2  0
 46 52  1  0
 48 51  1  0
 48 59  1  0
 49 58  1  0
 50 55  1  0
 53 59  1  0
M  END
$$$$
