
     RDKit          3D

 61 60  0  0  0  0  0  0  0  0999 V2000
   -0.5635    0.7459    2.5859 H   0  0  0  0  0  0  0  0  0  0  0  0
    2.1466   -1.5303    3.3435 H   0  0  0  0  0  0  0  0  0  0  0  0
    3.0718    1.7074    1.7572 H   0  0  0  0  0  0  0  0  0  0  0  0
   -2.5075    4.0865    1.7070 C   0  0  0  0  0  0  0  0  0  0  0  0
   -2.7608    5.3694    3.3282 H   0  0  0  0  0  0  0  0  0  0  0  0
   -1.3555   -2.3662   -4.0386 H   0  0  0  0  0  0  0  0  0  0  0  0
    1.6749    1.8800   -2.2298 H   0  0  0  0  0  0  0  0  0  0  0  0
    0.7728   -2.5770   -3.8237 C   0  0  0  0  0  0  0  0  0  0  0  0
    2.8986   -2.4960   -3.5746 H   0  0  0  0  0  0  0  0  0  0  0  0
    0.7530    0.0766   -2.9479 C   0  0  0  0  0  0  0  0  0  0  0  0
    2.1630    0.0284   -0.1972 H   0  0  0  0  0  0  0  0  0  0  0  0
   -3.9826    4.1515    0.1691 H   0  0  0  0  0  0  0  0  0  0  0  0
    3.8462   -0.0340   -0.2233 H   0  0  0  0  0  0  0  0  0  0  0  0
    0.3446   -2.2656    0.7609 C   0  0  0  0  0  0  0  0  0  0  0  0
   -1.8989   -1.6900   -0.6488 C   0  0  0  0  0  0  0  0  0  0  0  0
    2.1625   -1.6398    2.2450 C   0  0  0  0  0  0  0  0  0  0  0  0
    0.0637    1.2560   -0.8070 C   0  0  0  0  0  0  0  0  0  0  0  0
   -2.1343   -2.4881   -1.2681 H   0  0  0  0  0  0  0  0  0  0  0  0
    2.4211    0.9235    3.1919 H   0  0  0  0  0  0  0  0  0  0  0  0
   -0.9521   -4.5382   -0.2085 H   0  0  0  0  0  0  0  0  0  0  0  0
    0.5042    3.0846    1.8830 H   0  0  0  0  0  0  0  0  0  0  0  0
    3.0477   -0.5162    0.1839 N   0  0  0  0  0  0  0  0  0  0  0  0
    0.8995   -3.5107    0.2122 C   0  0  0  0  0  0  0  0  0  0  0  0
   -0.4187   -0.5705   -3.3178 C   0  0  0  0  0  0  0  0  0  0  0  0
   -1.2612    1.4450   -0.7729 N   0  0  0  0  0  0  0  0  0  0  0  0
   -0.4740    3.2423    1.4537 C   0  0  0  0  0  0  0  0  0  0  0  0
   -1.0308   -0.5197    1.0674 O   0  0  0  0  0  0  0  0  0  0  0  0
    0.7040    1.4345   -2.3619 C   0  0  0  0  0  0  0  0  0  0  0  0
   -2.6668   -0.5489   -0.8063 C   0  0  0  0  0  0  0  0  0  0  0  0
   -1.1005    4.7380    3.1225 H   0  0  0  0  0  0  0  0  0  0  0  0
   -0.7722   -0.9624    3.0899 H   0  0  0  0  0  0  0  0  0  0  0  0
   -4.2723    5.2685    1.5287 H   0  0  0  0  0  0  0  0  0  0  0  0
   -2.1883   -0.0029    2.6223 H   0  0  0  0  0  0  0  0  0  0  0  0
   -1.6957    3.3563    1.0948 N   0  0  0  0  0  0  0  0  0  0  0  0
   -4.5653    3.5329    1.7205 H   0  0  0  0  0  0  0  0  0  0  0  0
    2.8872   -0.1497   -2.8302 H   0  0  0  0  0  0  0  0  0  0  0  0
   -0.0234   -4.2696   -0.7160 C   0  0  0  0  0  0  0  0  0  0  0  0
   -1.1271   -0.1817    2.4369 C   0  0  0  0  0  0  0  0  0  0  0  0
   -3.5915   -0.6026   -1.3216 H   0  0  0  0  0  0  0  0  0  0  0  0
    0.4914   -5.1641   -1.0688 H   0  0  0  0  0  0  0  0  0  0  0  0
   -2.0738    4.8027    2.8110 N   0  0  0  0  0  0  0  0  0  0  0  0
    0.9605    0.9378   -0.1362 O   0  0  0  0  0  0  0  0  0  0  0  0
    2.6393   -2.5972    2.0090 H   0  0  0  0  0  0  0  0  0  0  0  0
    2.9859   -1.4816   -0.1521 H   0  0  0  0  0  0  0  0  0  0  0  0
   -3.3309    1.4903    0.3359 O   0  0  0  0  0  0  0  0  0  0  0  0
   -1.3666   -0.0206   -3.2566 H   0  0  0  0  0  0  0  0  0  0  0  0
    0.7765   -3.6280   -4.1426 H   0  0  0  0  0  0  0  0  0  0  0  0
    1.4954    1.0216    1.6911 H   0  0  0  0  0  0  0  0  0  0  0  0
   -0.8495   -1.6462    0.2878 C   0  0  0  0  0  0  0  0  0  0  0  0
    1.9499   -0.6327   -3.0676 C   0  0  0  0  0  0  0  0  0  0  0  0
    2.4577    0.8809    2.0958 C   0  0  0  0  0  0  0  0  0  0  0  0
   -0.4188   -1.8812   -3.7544 C   0  0  0  0  0  0  0  0  0  0  0  0
    4.0418   -0.6108    2.0122 H   0  0  0  0  0  0  0  0  0  0  0  0
   -2.3681    0.8295   -0.3258 C   0  0  0  0  0  0  0  0  0  0  0  0
    1.9562   -1.9506   -3.4974 C   0  0  0  0  0  0  0  0  0  0  0  0
    0.0022    2.1044   -2.8530 H   0  0  0  0  0  0  0  0  0  0  0  0
   -3.9246    4.2822    1.2567 C   0  0  0  0  0  0  0  0  0  0  0  0
   -0.3026   -3.6442   -1.5621 H   0  0  0  0  0  0  0  0  0  0  0  0
    3.0130   -0.4601    1.6767 C   0  0  0  0  0  0  0  0  0  0  0  0
    2.0450   -3.8710    0.3968 O   0  0  0  0  0  0  0  0  0  0  0  0
    0.8016   -1.6286    1.8335 N   0  0  0  0  0  0  0  0  0  0  0  0
  1 38  1  0
  2 16  1  0
  3 51  1  0
  4 34  2  3
  4 41  1  0
  4 57  1  0
  5 41  1  0
  6 52  1  0
  7 28  1  0
  8 47  1  0
  8 52  4  0
  8 55  4  0
  9 55  1  0
 10 24  4  0
 10 28  1  0
 10 50  4  0
 11 22  1  0
 12 57  1  0
 13 22  1  0
 14 23  1  0
 14 49  1  0
 14 61  2  3
 15 18  1  0
 15 29  1  0
 15 49  2  3
 16 43  1  0
 16 59  1  0
 16 61  1  0
 17 25  1  0
 17 28  1  0
 17 42  2  0
 19 51  1  0
 20 37  1  0
 21 26  1  0
 22 44  1  0
 22 59  1  0
 23 37  1  0
 23 60  2  0
 24 46  1  0
 24 52  4  0
 25 54  2  3
 26 34  1  0
 27 38  1  0
 27 49  1  0
 28 56  1  0
 29 39  1  0
 29 54  1  0
 30 41  1  0
 31 38  1  0
 32 57  1  0
 33 38  1  0
 35 57  1  0
 36 50  1  0
 37 40  1  0
 37 58  1  0
 45 54  1  0
 48 51  1  0
 50 55  4  0
 51 59  1  0
 53 59  1  0
M  CHG  2  22   1  45  -1
M  END
$$$$
