
     RDKit          3D

 61 64  0  0  0  0  0  0  0  0999 V2000
   -2.5149    0.1433    4.5275 O   0  0  0  0  0  0  0  0  0  0  0  0
   -0.3434   -1.8883    4.9213 H   0  0  0  0  0  0  0  0  0  0  0  0
    3.5326    0.6401   -1.2218 H   0  0  0  0  0  0  0  0  0  0  0  0
   -1.7954    1.8975    1.1602 O   0  0  0  0  0  0  0  0  0  0  0  0
   -4.2294    5.1675    3.9361 H   0  0  0  0  0  0  0  0  0  0  0  0
    1.6273   -1.1469   -5.4555 H   0  0  0  0  0  0  0  0  0  0  0  0
    2.6372    1.4096   -4.5048 H   0  0  0  0  0  0  0  0  0  0  0  0
    2.0990   -1.3451   -2.8659 C   0  0  0  0  0  0  0  0  0  0  0  0
    4.0108   -2.3554   -2.6445 H   0  0  0  0  0  0  0  0  0  0  0  0
    1.8327    0.6672   -4.4893 C   0  0  0  0  0  0  0  0  0  0  0  0
    3.6972   -1.4699   -3.1816 C   0  0  0  0  0  0  0  0  0  0  0  0
   -2.1749    4.1732    0.6915 C   0  0  0  0  0  0  0  0  0  0  0  0
    4.2535   -0.5868   -2.9477 H   0  0  0  0  0  0  0  0  0  0  0  0
   -0.1979   -0.9555    0.6449 N   0  0  0  0  0  0  0  0  0  0  0  0
   -1.9655   -3.4729    1.4986 H   0  0  0  0  0  0  0  0  0  0  0  0
    0.0270   -3.5676    3.3938 H   0  0  0  0  0  0  0  0  0  0  0  0
   -0.1578    0.2998   -0.2273 O   0  0  0  0  0  0  0  0  0  0  0  0
   -2.4565   -0.6946    1.6780 C   0  0  0  0  0  0  0  0  0  0  0  0
    0.2786   -0.9470    3.5288 H   0  0  0  0  0  0  0  0  0  0  0  0
   -1.1081   -2.7803    1.7346 C   0  0  0  0  0  0  0  0  0  0  0  0
   -3.1657    5.7076    2.2087 C   0  0  0  0  0  0  0  0  0  0  0  0
    2.0398   -0.6788   -0.4660 C   0  0  0  0  0  0  0  0  0  0  0  0
    0.9880   -3.0572    0.6545 N   0  0  0  0  0  0  0  0  0  0  0  0
    2.1925   -0.4282   -5.5518 O   0  0  0  0  0  0  0  0  0  0  0  0
   -1.0345    2.8359   -0.9368 N   0  0  0  0  0  0  0  0  0  0  0  0
   -1.9455    4.9664   -0.0148 H   0  0  0  0  0  0  0  0  0  0  0  0
   -1.1794   -1.2316    1.4390 N   0  0  0  0  0  0  0  0  0  0  0  0
    1.0130    0.7874   -2.2233 C   0  0  0  0  0  0  0  0  0  0  0  0
   -3.2819   -0.6847    0.5987 O   0  0  0  0  0  0  0  0  0  0  0  0
   -3.9904    6.9282    3.4755 H   0  0  0  0  0  0  0  0  0  0  0  0
   -0.5900   -1.5976    3.8937 C   0  0  0  0  0  0  0  0  0  0  0  0
   -2.8593    4.4507    1.8727 C   0  0  0  0  0  0  0  0  0  0  0  0
   -2.6154   -0.2665    3.0003 C   0  0  0  0  0  0  0  0  0  0  0  0
   -1.6027    2.9579    0.3605 N   0  0  0  0  0  0  0  0  0  0  0  0
   -3.7578    2.3897    2.5835 C   0  0  0  0  0  0  0  0  0  0  0  0
    3.0552   -0.1611   -5.8674 H   0  0  0  0  0  0  0  0  0  0  0  0
    1.4655   -3.9147   -1.1301 H   0  0  0  0  0  0  0  0  0  0  0  0
   -1.7783   -0.8033    3.8679 C   0  0  0  0  0  0  0  0  0  0  0  0
   -4.0047   -0.4309    0.4602 H   0  0  0  0  0  0  0  0  0  0  0  0
    1.8087   -3.0865   -0.5305 C   0  0  0  0  0  0  0  0  0  0  0  0
   -3.1906    3.6039    2.7353 C   0  0  0  0  0  0  0  0  0  0  0  0
    0.9487    0.2863   -0.9312 C   0  0  0  0  0  0  0  0  0  0  0  0
    1.2726   -3.3786    1.5021 H   0  0  0  0  0  0  0  0  0  0  0  0
    1.7905   -1.7943   -1.3318 N   0  0  0  0  0  0  0  0  0  0  0  0
   -4.0005    0.7979    2.3258 O   0  0  0  0  0  0  0  0  0  0  0  0
    0.8831    1.1272   -4.8742 H   0  0  0  0  0  0  0  0  0  0  0  0
    0.7705   -1.9304   -1.6946 H   0  0  0  0  0  0  0  0  0  0  0  0
    3.3980   -0.0864   -0.4438 C   0  0  0  0  0  0  0  0  0  0  0  0
   -0.3550   -2.4009    0.5910 C   0  0  0  0  0  0  0  0  0  0  0  0
    1.6837    0.1312   -3.1900 C   0  0  0  0  0  0  0  0  0  0  0  0
    3.5371    0.4561    0.5017 H   0  0  0  0  0  0  0  0  0  0  0  0
    1.3320   -2.1471   -3.5935 O   0  0  0  0  0  0  0  0  0  0  0  0
    4.1620   -0.8552   -0.4807 H   0  0  0  0  0  0  0  0  0  0  0  0
   -3.5845    1.5233    1.6171 O   0  0  0  0  0  0  0  0  0  0  0  0
    3.7915   -1.6950   -4.2505 H   0  0  0  0  0  0  0  0  0  0  0  0
    0.1758    2.2772   -2.5618 S   0  0  0  0  0  0  0  0  0  0  0  0
   -3.9021    5.8939    3.2377 C   0  0  0  0  0  0  0  0  0  0  0  0
   -0.7194   -2.6708   -0.3755 H   0  0  0  0  0  0  0  0  0  0  0  0
    1.9070   -0.9183    0.5757 H   0  0  0  0  0  0  0  0  0  0  0  0
    2.8542   -3.2677   -0.2708 H   0  0  0  0  0  0  0  0  0  0  0  0
   -0.5637   -2.8228    3.0407 C   0  0  0  0  0  0  0  0  0  0  0  0
  1 33  1  0
  1 38  1  0
  2 31  1  0
  3 48  1  0
  4 34  1  0
  5 57  1  0
  6 24  1  0
  7 10  1  0
  8 11  1  0
  8 44  1  0
  8 50  1  0
  8 52  1  0
  9 11  1  0
 10 24  1  0
 10 46  1  0
 10 50  1  0
 11 13  1  0
 11 55  1  0
 12 26  1  0
 12 32  1  0
 12 34  1  0
 14 27  1  0
 14 49  1  0
 15 20  1  0
 16 61  1  0
 17 42  1  0
 18 27  1  0
 18 29  1  0
 18 33  1  0
 18 45  1  0
 19 31  1  0
 20 49  1  0
 20 61  2  3
 21 32  1  0
 21 57  1  0
 22 42  1  0
 22 44  1  0
 22 48  1  0
 22 59  1  0
 23 40  1  0
 23 43  1  0
 23 49  1  0
 24 36  1  0
 25 34  1  0
 25 56  1  0
 28 42  1  0
 28 50  1  0
 28 56  1  0
 29 39  1  0
 30 57  1  0
 31 38  1  0
 31 61  1  0
 32 41  1  0
 33 38  1  0
 35 41  1  0
 35 54  1  0
 37 40  1  0
 40 44  1  0
 40 60  1  0
 44 47  1  0
 45 54  1  0
 48 51  1  0
 48 53  1  0
 49 58  1  0
M  CHG  8   1  -1   4  -1  17  -1  18  -1  21  -1  23   1  25   1  27  -1
M  CHG  8  28  -1  29   1  31  -1  32   1  33  -1  34   1  35  -1  38  -1
M  CHG  8  41   1  42  -1  44   1  45  -1  49  -1  50  -1  52  -1  56   1
M  CHG  1  61   1
M  END
$$$$
